[General]
network = "EmergencyNetwork"
sim-time-limit = 3ms
record-eventlog = true

**.hasEgressTrafficShaping = true

**.multicastForwarding = true
**.defaultMulticastLoop = false
**.igmp.enabled = false
*.*.ethernet.macHeaderChecker.promiscuous=true


*.n0.numApps = 0
*.n0.macTable.forwardingTable = [{"address": "01-00-5E-00-00-03", "interface": "eth2"},{"address": "01-00-5E-00-00-05", "interface": "eth1"},{"address": "01-00-5E-00-00-06", "interface": "eth2"},{"address": "01-00-5E-00-00-08", "interface": "eth2"},{"address": "01-00-5E-00-00-0F", "interface": "eth1"}]


*.n1.numApps = 0
*.n1.macTable.forwardingTable = [{"address": "01-00-5E-00-00-03", "interface": "eth0"},{"address": "01-00-5E-00-00-04", "interface": "eth3"},{"address": "01-00-5E-00-00-05", "interface": "eth3"},{"address": "01-00-5E-00-00-06", "interface": "eth0"},{"address": "01-00-5E-00-00-0F", "interface": "eth2"}]


*.n2.numApps = 0
*.n2.macTable.forwardingTable = [{"address": "01-00-5E-00-00-02", "interface": "eth1"},{"address": "01-00-5E-00-00-03", "interface": "eth0"},{"address": "01-00-5E-00-00-06", "interface": "eth0"},{"address": "01-00-5E-00-00-0F", "interface": "eth2"}]


*.n3.numApps = 0
*.n3.macTable.forwardingTable = [{"address": "01-00-5E-00-00-05", "interface": "eth0"},{"address": "01-00-5E-00-00-07", "interface": "eth1"},{"address": "01-00-5E-00-00-08", "interface": "eth0"},{"address": "01-00-5E-00-00-0A", "interface": "eth1"},{"address": "01-00-5E-00-00-0C", "interface": "eth2"},{"address": "01-00-5E-00-00-0E", "interface": "eth1"},{"address": "01-00-5E-00-00-10", "interface": "eth1"}]


*.n4.numApps = 0
*.n4.macTable.forwardingTable = [{"address": "01-00-5E-00-00-04", "interface": "eth0"},{"address": "01-00-5E-00-00-07", "interface": "eth3"},{"address": "01-00-5E-00-00-09", "interface": "eth2"},{"address": "01-00-5E-00-00-0A", "interface": "eth3"},{"address": "01-00-5E-00-00-0B", "interface": "eth2"},{"address": "01-00-5E-00-00-0C", "interface": "eth1"},{"address": "01-00-5E-00-00-0D", "interface": "eth3"},{"address": "01-00-5E-00-00-0E", "interface": "eth3"},{"address": "01-00-5E-00-00-10", "interface": "eth3"}]


*.n5.numApps = 0
*.n5.macTable.forwardingTable = [{"address": "01-00-5E-00-00-02", "interface": "eth2"},{"address": "01-00-5E-00-00-03", "interface": "eth0"},{"address": "01-00-5E-00-00-09", "interface": "eth2"},{"address": "01-00-5E-00-00-0B", "interface": "eth2"},{"address": "01-00-5E-00-00-0C", "interface": "eth1"},{"address": "01-00-5E-00-00-0D", "interface": "eth1"}]


*.n6.numApps = 4
*.n6.macTable.forwardingTable = [{"address": "01-00-5E-00-00-0F", "interface": "eth0"}]

*.n6.app[0].typename = "UdpSinkApp"
*.n6.app[0].display-name = "stream_1"
*.n6.app[0].io.localPort = 5001
*.n6.app[0].io.multicastAddresses = ["224.0.0.3"]

*.n6.app[1].typename = "UdpSinkApp"
*.n6.app[1].display-name = "stream_4"
*.n6.app[1].io.localPort = 5004
*.n6.app[1].io.multicastAddresses = ["224.0.0.6"]

*.n6.app[2].typename = "UdpSinkApp"
*.n6.app[2].display-name = "emergency_stream_0"
*.n6.app[2].io.localPort = 10000
*.n6.app[2].io.multicastAddresses = ["224.0.0.8"]

*.n6.app[3].typename = "UdpBasicBurst"
*.n6.app[3].display-name = "emergency_stream_7"
*.n6.app[3].destAddresses = "224.0.0.15" # n8
*.n6.app[3].destPort = 10007
*.n6.app[3].chooseDestAddrMode = "once"
*.n6.app[3].burstDuration = 0.008000000012000012ms
*.n6.app[3].messageLength = 100B - 58B # 58B = 4B (VLAN Tag) + 8B (UDP) + 20B (IP) + 14B (ETH MAC) + 4B (ETH FCS) + 8B (ETH PHY)
*.n6.app[3].startTime = 0.666666ms + exponential(10ms)
*.n6.app[3].sleepDuration = 0.666666ms + exponential(10ms)
*.n6.app[3].sendInterval = 9999s # burst consists of a single packet
*.n6.app[3].io.interfaceTableModule = "^.^.interfaceTable"


*.n7.numApps = 2
*.n7.macTable.forwardingTable = []

*.n7.app[0].typename = "UdpSinkApp"
*.n7.app[0].display-name = "stream_2"
*.n7.app[0].io.localPort = 5002
*.n7.app[0].io.multicastAddresses = ["224.0.0.4"]

*.n7.app[1].typename = "UdpSinkApp"
*.n7.app[1].display-name = "stream_3"
*.n7.app[1].io.localPort = 5003
*.n7.app[1].io.multicastAddresses = ["224.0.0.5"]


*.n8.numApps = 10
*.n8.macTable.forwardingTable = [{"address": "01-00-5E-00-00-02", "interface": "eth0"},{"address": "01-00-5E-00-00-06", "interface": "eth0"}]

*.n8.app[0].typename = "UdpSourceApp"
*.n8.app[0].display-name = "stream_0_0"
*.n8.app[0].io.destAddress = "224.0.0.2" # n11
*.n8.app[0].io.destPort = 5000
*.n8.app[0].source.packetLength = 100B - 58B # 58B = 4B (VLAN Tag) + 8B (UDP) + 20B (IP) + 14B (ETH MAC) + 4B (ETH FCS) + 8B (ETH PHY)
*.n8.app[0].source.productionInterval = 600000ns
*.n8.app[0].source.initialProductionOffset = 2s
*.n8.app[0].io.interfaceTableModule = "^.^.interfaceTable"

*.n8.app[1].typename = "UdpSourceApp"
*.n8.app[1].display-name = "stream_0_1"
*.n8.app[1].io.destAddress = "224.0.0.2" # n11
*.n8.app[1].io.destPort = 5000
*.n8.app[1].source.packetLength = 100B - 58B # 58B = 4B (VLAN Tag) + 8B (UDP) + 20B (IP) + 14B (ETH MAC) + 4B (ETH FCS) + 8B (ETH PHY)
*.n8.app[1].source.productionInterval = 600000ns
*.n8.app[1].source.initialProductionOffset = 2s
*.n8.app[1].io.interfaceTableModule = "^.^.interfaceTable"

*.n8.app[2].typename = "UdpSourceApp"
*.n8.app[2].display-name = "stream_0_2"
*.n8.app[2].io.destAddress = "224.0.0.2" # n11
*.n8.app[2].io.destPort = 5000
*.n8.app[2].source.packetLength = 100B - 58B # 58B = 4B (VLAN Tag) + 8B (UDP) + 20B (IP) + 14B (ETH MAC) + 4B (ETH FCS) + 8B (ETH PHY)
*.n8.app[2].source.productionInterval = 600000ns
*.n8.app[2].source.initialProductionOffset = 2s
*.n8.app[2].io.interfaceTableModule = "^.^.interfaceTable"

*.n8.app[3].typename = "UdpSourceApp"
*.n8.app[3].display-name = "stream_0_3"
*.n8.app[3].io.destAddress = "224.0.0.2" # n11
*.n8.app[3].io.destPort = 5000
*.n8.app[3].source.packetLength = 100B - 58B # 58B = 4B (VLAN Tag) + 8B (UDP) + 20B (IP) + 14B (ETH MAC) + 4B (ETH FCS) + 8B (ETH PHY)
*.n8.app[3].source.productionInterval = 600000ns
*.n8.app[3].source.initialProductionOffset = 2s
*.n8.app[3].io.interfaceTableModule = "^.^.interfaceTable"

*.n8.app[4].typename = "UdpSourceApp"
*.n8.app[4].display-name = "stream_0_4"
*.n8.app[4].io.destAddress = "224.0.0.2" # n11
*.n8.app[4].io.destPort = 5000
*.n8.app[4].source.packetLength = 100B - 58B # 58B = 4B (VLAN Tag) + 8B (UDP) + 20B (IP) + 14B (ETH MAC) + 4B (ETH FCS) + 8B (ETH PHY)
*.n8.app[4].source.productionInterval = 600000ns
*.n8.app[4].source.initialProductionOffset = 2s
*.n8.app[4].io.interfaceTableModule = "^.^.interfaceTable"

*.n8.app[5].typename = "UdpSourceApp"
*.n8.app[5].display-name = "stream_0_5"
*.n8.app[5].io.destAddress = "224.0.0.2" # n11
*.n8.app[5].io.destPort = 5000
*.n8.app[5].source.packetLength = 100B - 58B # 58B = 4B (VLAN Tag) + 8B (UDP) + 20B (IP) + 14B (ETH MAC) + 4B (ETH FCS) + 8B (ETH PHY)
*.n8.app[5].source.productionInterval = 600000ns
*.n8.app[5].source.initialProductionOffset = 2s
*.n8.app[5].io.interfaceTableModule = "^.^.interfaceTable"

*.n8.app[6].typename = "UdpSourceApp"
*.n8.app[6].display-name = "stream_4_0"
*.n8.app[6].io.destAddress = "224.0.0.6" # n6
*.n8.app[6].io.destPort = 5004
*.n8.app[6].source.packetLength = 100B - 58B # 58B = 4B (VLAN Tag) + 8B (UDP) + 20B (IP) + 14B (ETH MAC) + 4B (ETH FCS) + 8B (ETH PHY)
*.n8.app[6].source.productionInterval = 600000ns
*.n8.app[6].source.initialProductionOffset = 2s#200ns
*.n8.app[6].io.interfaceTableModule = "^.^.interfaceTable"

*.n8.app[7].typename = "UdpSourceApp"
*.n8.app[7].display-name = "stream_4_1"
*.n8.app[7].io.destAddress = "224.0.0.6" # n6
*.n8.app[7].io.destPort = 5004
*.n8.app[7].source.packetLength = 100B - 58B # 58B = 4B (VLAN Tag) + 8B (UDP) + 20B (IP) + 14B (ETH MAC) + 4B (ETH FCS) + 8B (ETH PHY)
*.n8.app[7].source.productionInterval = 600000ns
*.n8.app[7].source.initialProductionOffset = 2s#200200ns
*.n8.app[7].io.interfaceTableModule = "^.^.interfaceTable"

*.n8.app[8].typename = "UdpSourceApp"
*.n8.app[8].display-name = "stream_4_2"
*.n8.app[8].io.destAddress = "224.0.0.6" # n6
*.n8.app[8].io.destPort = 5004
*.n8.app[8].source.packetLength = 100B - 58B # 58B = 4B (VLAN Tag) + 8B (UDP) + 20B (IP) + 14B (ETH MAC) + 4B (ETH FCS) + 8B (ETH PHY)
*.n8.app[8].source.productionInterval = 600000ns
*.n8.app[8].source.initialProductionOffset = 2s#400200ns
*.n8.app[8].io.interfaceTableModule = "^.^.interfaceTable"

*.n8.app[9].typename = "UdpSinkApp"
*.n8.app[9].display-name = "emergency_stream_7"
*.n8.app[9].io.localPort = 10007
*.n8.app[9].io.multicastAddresses = ["224.0.0.15"]


*.n9.numApps = 9
*.n9.macTable.forwardingTable = [{"address": "01-00-5E-00-00-05", "interface": "eth0"},{"address": "01-00-5E-00-00-07", "interface": "eth0"},{"address": "01-00-5E-00-00-08", "interface": "eth0"},{"address": "01-00-5E-00-00-0A", "interface": "eth0"},{"address": "01-00-5E-00-00-0E", "interface": "eth0"},{"address": "01-00-5E-00-00-10", "interface": "eth0"}]

*.n9.app[0].typename = "UdpSourceApp"
*.n9.app[0].display-name = "stream_3_0"
*.n9.app[0].io.destAddress = "224.0.0.5" # n7
*.n9.app[0].io.destPort = 5003
*.n9.app[0].source.packetLength = 100B - 58B # 58B = 4B (VLAN Tag) + 8B (UDP) + 20B (IP) + 14B (ETH MAC) + 4B (ETH FCS) + 8B (ETH PHY)
*.n9.app[0].source.productionInterval = 600000ns
*.n9.app[0].source.initialProductionOffset = 9160ns
*.n9.app[0].io.interfaceTableModule = "^.^.interfaceTable"

*.n9.app[1].typename = "UdpSourceApp"
*.n9.app[1].display-name = "stream_3_1"
*.n9.app[1].io.destAddress = "224.0.0.5" # n7
*.n9.app[1].io.destPort = 5003
*.n9.app[1].source.packetLength = 100B - 58B # 58B = 4B (VLAN Tag) + 8B (UDP) + 20B (IP) + 14B (ETH MAC) + 4B (ETH FCS) + 8B (ETH PHY)
*.n9.app[1].source.productionInterval = 600000ns
*.n9.app[1].source.initialProductionOffset = 309160ns
*.n9.app[1].io.interfaceTableModule = "^.^.interfaceTable"

*.n9.app[2].typename = "UdpSourceApp"
*.n9.app[2].display-name = "stream_5_0"
*.n9.app[2].io.destAddress = "224.0.0.7" # n10
*.n9.app[2].io.destPort = 5005
*.n9.app[2].source.packetLength = 100B - 58B # 58B = 4B (VLAN Tag) + 8B (UDP) + 20B (IP) + 14B (ETH MAC) + 4B (ETH FCS) + 8B (ETH PHY)
*.n9.app[2].source.productionInterval = 600000ns
*.n9.app[2].source.initialProductionOffset = 200ns
*.n9.app[2].io.interfaceTableModule = "^.^.interfaceTable"

*.n9.app[3].typename = "UdpSourceApp"
*.n9.app[3].display-name = "stream_5_1"
*.n9.app[3].io.destAddress = "224.0.0.7" # n10
*.n9.app[3].io.destPort = 5005
*.n9.app[3].source.packetLength = 100B - 58B # 58B = 4B (VLAN Tag) + 8B (UDP) + 20B (IP) + 14B (ETH MAC) + 4B (ETH FCS) + 8B (ETH PHY)
*.n9.app[3].source.productionInterval = 600000ns
*.n9.app[3].source.initialProductionOffset = 300200ns
*.n9.app[3].io.interfaceTableModule = "^.^.interfaceTable"

*.n9.app[4].typename = "UdpBasicBurst"
*.n9.app[4].display-name = "emergency_stream_0"
*.n9.app[4].destAddresses = "224.0.0.8" # n6
*.n9.app[4].destPort = 10000
*.n9.app[4].chooseDestAddrMode = "once"
*.n9.app[4].burstDuration = 0.008000000012000012ms
*.n9.app[4].messageLength = 100B - 58B # 58B = 4B (VLAN Tag) + 8B (UDP) + 20B (IP) + 14B (ETH MAC) + 4B (ETH FCS) + 8B (ETH PHY)
*.n9.app[4].startTime = 613345ns #0.666666ms + exponential(10ms)
*.n9.app[4].sleepDuration = 0.666666ms + exponential(10ms)
*.n9.app[4].sendInterval = 9999s # burst consists of a single packet
*.n9.app[4].io.interfaceTableModule = "^.^.interfaceTable"

*.n9.app[5].typename = "UdpBasicBurst"
*.n9.app[5].display-name = "emergency_stream_2"
*.n9.app[5].destAddresses = "224.0.0.10" # n10
*.n9.app[5].destPort = 10002
*.n9.app[5].chooseDestAddrMode = "once"
*.n9.app[5].burstDuration = 0.008000000012000012ms
*.n9.app[5].messageLength = 100B - 58B # 58B = 4B (VLAN Tag) + 8B (UDP) + 20B (IP) + 14B (ETH MAC) + 4B (ETH FCS) + 8B (ETH PHY)
*.n9.app[5].startTime = 0.666666ms + exponential(10ms)
*.n9.app[5].sleepDuration = 0.666666ms + exponential(10ms)
*.n9.app[5].sendInterval = 9999s # burst consists of a single packet
*.n9.app[5].io.interfaceTableModule = "^.^.interfaceTable"

*.n9.app[6].typename = "UdpSinkApp"
*.n9.app[6].display-name = "emergency_stream_4"
*.n9.app[6].io.localPort = 10004
*.n9.app[6].io.multicastAddresses = ["224.0.0.12"]

*.n9.app[7].typename = "UdpBasicBurst"
*.n9.app[7].display-name = "emergency_stream_6"
*.n9.app[7].destAddresses = "224.0.0.14" # n10
*.n9.app[7].destPort = 10006
*.n9.app[7].chooseDestAddrMode = "once"
*.n9.app[7].burstDuration = 0.008000000024000023ms
*.n9.app[7].messageLength = 100B - 58B # 58B = 4B (VLAN Tag) + 8B (UDP) + 20B (IP) + 14B (ETH MAC) + 4B (ETH FCS) + 8B (ETH PHY)
*.n9.app[7].startTime = 0.333333ms + exponential(10ms)
*.n9.app[7].sleepDuration = 0.333333ms + exponential(10ms)
*.n9.app[7].sendInterval = 9999s # burst consists of a single packet
*.n9.app[7].io.interfaceTableModule = "^.^.interfaceTable"

*.n9.app[8].typename = "UdpBasicBurst"
*.n9.app[8].display-name = "emergency_stream_8"
*.n9.app[8].destAddresses = "224.0.0.16" # n10
*.n9.app[8].destPort = 10008
*.n9.app[8].chooseDestAddrMode = "once"
*.n9.app[8].burstDuration = 0.008000000012000012ms
*.n9.app[8].messageLength = 100B - 58B # 58B = 4B (VLAN Tag) + 8B (UDP) + 20B (IP) + 14B (ETH MAC) + 4B (ETH FCS) + 8B (ETH PHY)
*.n9.app[8].startTime = 597336ns # 0.666666ms + exponential(10ms)
*.n9.app[8].sleepDuration = 0.666666ms + exponential(10ms)
*.n9.app[8].sendInterval = 9999s # burst consists of a single packet
*.n9.app[8].io.interfaceTableModule = "^.^.interfaceTable"


*.n10.numApps = 13
*.n10.macTable.forwardingTable = [{"address": "01-00-5E-00-00-04", "interface": "eth0"},{"address": "01-00-5E-00-00-09", "interface": "eth0"},{"address": "01-00-5E-00-00-0B", "interface": "eth0"}]

*.n10.app[0].typename = "UdpSourceApp"
*.n10.app[0].display-name = "stream_2_0"
*.n10.app[0].io.destAddress = "224.0.0.4" # n7
*.n10.app[0].io.destPort = 5002
*.n10.app[0].source.packetLength = 100B - 58B # 58B = 4B (VLAN Tag) + 8B (UDP) + 20B (IP) + 14B (ETH MAC) + 4B (ETH FCS) + 8B (ETH PHY)
*.n10.app[0].source.productionInterval = 600000ns
*.n10.app[0].source.initialProductionOffset = 200ns
*.n10.app[0].io.interfaceTableModule = "^.^.interfaceTable"

*.n10.app[1].typename = "UdpSourceApp"
*.n10.app[1].display-name = "stream_2_1"
*.n10.app[1].io.destAddress = "224.0.0.4" # n7
*.n10.app[1].io.destPort = 5002
*.n10.app[1].source.packetLength = 100B - 58B # 58B = 4B (VLAN Tag) + 8B (UDP) + 20B (IP) + 14B (ETH MAC) + 4B (ETH FCS) + 8B (ETH PHY)
*.n10.app[1].source.productionInterval = 600000ns
*.n10.app[1].source.initialProductionOffset = 100200ns
*.n10.app[1].io.interfaceTableModule = "^.^.interfaceTable"

*.n10.app[2].typename = "UdpSourceApp"
*.n10.app[2].display-name = "stream_2_2"
*.n10.app[2].io.destAddress = "224.0.0.4" # n7
*.n10.app[2].io.destPort = 5002
*.n10.app[2].source.packetLength = 100B - 58B # 58B = 4B (VLAN Tag) + 8B (UDP) + 20B (IP) + 14B (ETH MAC) + 4B (ETH FCS) + 8B (ETH PHY)
*.n10.app[2].source.productionInterval = 600000ns
*.n10.app[2].source.initialProductionOffset = 200200ns
*.n10.app[2].io.interfaceTableModule = "^.^.interfaceTable"

*.n10.app[3].typename = "UdpSourceApp"
*.n10.app[3].display-name = "stream_2_3"
*.n10.app[3].io.destAddress = "224.0.0.4" # n7
*.n10.app[3].io.destPort = 5002
*.n10.app[3].source.packetLength = 100B - 58B # 58B = 4B (VLAN Tag) + 8B (UDP) + 20B (IP) + 14B (ETH MAC) + 4B (ETH FCS) + 8B (ETH PHY)
*.n10.app[3].source.productionInterval = 600000ns
*.n10.app[3].source.initialProductionOffset = 300200ns
*.n10.app[3].io.interfaceTableModule = "^.^.interfaceTable"

*.n10.app[4].typename = "UdpSourceApp"
*.n10.app[4].display-name = "stream_2_4"
*.n10.app[4].io.destAddress = "224.0.0.4" # n7
*.n10.app[4].io.destPort = 5002
*.n10.app[4].source.packetLength = 100B - 58B # 58B = 4B (VLAN Tag) + 8B (UDP) + 20B (IP) + 14B (ETH MAC) + 4B (ETH FCS) + 8B (ETH PHY)
*.n10.app[4].source.productionInterval = 600000ns
*.n10.app[4].source.initialProductionOffset = 400200ns
*.n10.app[4].io.interfaceTableModule = "^.^.interfaceTable"

*.n10.app[5].typename = "UdpSourceApp"
*.n10.app[5].display-name = "stream_2_5"
*.n10.app[5].io.destAddress = "224.0.0.4" # n7
*.n10.app[5].io.destPort = 5002
*.n10.app[5].source.packetLength = 100B - 58B # 58B = 4B (VLAN Tag) + 8B (UDP) + 20B (IP) + 14B (ETH MAC) + 4B (ETH FCS) + 8B (ETH PHY)
*.n10.app[5].source.productionInterval = 600000ns
*.n10.app[5].source.initialProductionOffset = 500200ns
*.n10.app[5].io.interfaceTableModule = "^.^.interfaceTable"

*.n10.app[6].typename = "UdpSinkApp"
*.n10.app[6].display-name = "stream_5"
*.n10.app[6].io.localPort = 5005
*.n10.app[6].io.multicastAddresses = ["224.0.0.7"]

*.n10.app[7].typename = "UdpBasicBurst"
*.n10.app[7].display-name = "emergency_stream_1"
*.n10.app[7].destAddresses = "224.0.0.9" # n11
*.n10.app[7].destPort = 10001
*.n10.app[7].chooseDestAddrMode = "once"
*.n10.app[7].burstDuration = 0.008000000024000023ms
*.n10.app[7].messageLength = 100B - 58B # 58B = 4B (VLAN Tag) + 8B (UDP) + 20B (IP) + 14B (ETH MAC) + 4B (ETH FCS) + 8B (ETH PHY)
*.n10.app[7].startTime = 0.333333ms + exponential(10ms)
*.n10.app[7].sleepDuration = 0.333333ms + exponential(10ms)
*.n10.app[7].sendInterval = 9999s # burst consists of a single packet
*.n10.app[7].io.interfaceTableModule = "^.^.interfaceTable"

*.n10.app[8].typename = "UdpSinkApp"
*.n10.app[8].display-name = "emergency_stream_2"
*.n10.app[8].io.localPort = 10002
*.n10.app[8].io.multicastAddresses = ["224.0.0.10"]

*.n10.app[9].typename = "UdpBasicBurst"
*.n10.app[9].display-name = "emergency_stream_3"
*.n10.app[9].destAddresses = "224.0.0.11" # n11
*.n10.app[9].destPort = 10003
*.n10.app[9].chooseDestAddrMode = "once"
*.n10.app[9].burstDuration = 0.008000000024000023ms
*.n10.app[9].messageLength = 100B - 58B # 58B = 4B (VLAN Tag) + 8B (UDP) + 20B (IP) + 14B (ETH MAC) + 4B (ETH FCS) + 8B (ETH PHY)
*.n10.app[9].startTime = 0.333333ms + exponential(10ms)
*.n10.app[9].sleepDuration = 0.333333ms + exponential(10ms)
*.n10.app[9].sendInterval = 9999s # burst consists of a single packet
*.n10.app[9].io.interfaceTableModule = "^.^.interfaceTable"

*.n10.app[10].typename = "UdpSinkApp"
*.n10.app[10].display-name = "emergency_stream_5"
*.n10.app[10].io.localPort = 10005
*.n10.app[10].io.multicastAddresses = ["224.0.0.13"]

*.n10.app[11].typename = "UdpSinkApp"
*.n10.app[11].display-name = "emergency_stream_6"
*.n10.app[11].io.localPort = 10006
*.n10.app[11].io.multicastAddresses = ["224.0.0.14"]

*.n10.app[12].typename = "UdpSinkApp"
*.n10.app[12].display-name = "emergency_stream_8"
*.n10.app[12].io.localPort = 10008
*.n10.app[12].io.multicastAddresses = ["224.0.0.16"]


*.n11.numApps = 8
*.n11.macTable.forwardingTable = [{"address": "01-00-5E-00-00-03", "interface": "eth0"},{"address": "01-00-5E-00-00-0C", "interface": "eth0"},{"address": "01-00-5E-00-00-0D", "interface": "eth0"}]

*.n11.app[0].typename = "UdpSinkApp"
*.n11.app[0].display-name = "stream_0"
*.n11.app[0].io.localPort = 5000
*.n11.app[0].io.multicastAddresses = ["224.0.0.2"]

*.n11.app[1].typename = "UdpSourceApp"
*.n11.app[1].display-name = "stream_1_0"
*.n11.app[1].io.destAddress = "224.0.0.3" # n6
*.n11.app[1].io.destPort = 5001
*.n11.app[1].source.packetLength = 100B - 58B # 58B = 4B (VLAN Tag) + 8B (UDP) + 20B (IP) + 14B (ETH MAC) + 4B (ETH FCS) + 8B (ETH PHY)
*.n11.app[1].source.productionInterval = 600000ns
*.n11.app[1].source.initialProductionOffset = 2s#200ns
*.n11.app[1].io.interfaceTableModule = "^.^.interfaceTable"

*.n11.app[2].typename = "UdpSourceApp"
*.n11.app[2].display-name = "stream_1_1"
*.n11.app[2].io.destAddress = "224.0.0.3" # n6
*.n11.app[2].io.destPort = 5001
*.n11.app[2].source.packetLength = 100B - 58B # 58B = 4B (VLAN Tag) + 8B (UDP) + 20B (IP) + 14B (ETH MAC) + 4B (ETH FCS) + 8B (ETH PHY)
*.n11.app[2].source.productionInterval = 600000ns
*.n11.app[2].source.initialProductionOffset = 2s#200200ns
*.n11.app[2].io.interfaceTableModule = "^.^.interfaceTable"

*.n11.app[3].typename = "UdpSourceApp"
*.n11.app[3].display-name = "stream_1_2"
*.n11.app[3].io.destAddress = "224.0.0.3" # n6
*.n11.app[3].io.destPort = 5001
*.n11.app[3].source.packetLength = 100B - 58B # 58B = 4B (VLAN Tag) + 8B (UDP) + 20B (IP) + 14B (ETH MAC) + 4B (ETH FCS) + 8B (ETH PHY)
*.n11.app[3].source.productionInterval = 600000ns
*.n11.app[3].source.initialProductionOffset = 2s#400200ns
*.n11.app[3].io.interfaceTableModule = "^.^.interfaceTable"

*.n11.app[4].typename = "UdpSinkApp"
*.n11.app[4].display-name = "emergency_stream_1"
*.n11.app[4].io.localPort = 10001
*.n11.app[4].io.multicastAddresses = ["224.0.0.9"]

*.n11.app[5].typename = "UdpSinkApp"
*.n11.app[5].display-name = "emergency_stream_3"
*.n11.app[5].io.localPort = 10003
*.n11.app[5].io.multicastAddresses = ["224.0.0.11"]

*.n11.app[6].typename = "UdpBasicBurst"
*.n11.app[6].display-name = "emergency_stream_4"
*.n11.app[6].destAddresses = "224.0.0.12" # n9
*.n11.app[6].destPort = 10004
*.n11.app[6].chooseDestAddrMode = "once"
*.n11.app[6].burstDuration = 0.008000000024000023ms
*.n11.app[6].messageLength = 100B - 58B # 58B = 4B (VLAN Tag) + 8B (UDP) + 20B (IP) + 14B (ETH MAC) + 4B (ETH FCS) + 8B (ETH PHY)
*.n11.app[6].startTime = 0.333333ms + exponential(10ms)
*.n11.app[6].sleepDuration = 0.333333ms + exponential(10ms)
*.n11.app[6].sendInterval = 9999s # burst consists of a single packet
*.n11.app[6].io.interfaceTableModule = "^.^.interfaceTable"

*.n11.app[7].typename = "UdpBasicBurst"
*.n11.app[7].display-name = "emergency_stream_5"
*.n11.app[7].destAddresses = "224.0.0.13" # n10
*.n11.app[7].destPort = 10005
*.n11.app[7].chooseDestAddrMode = "once"
*.n11.app[7].burstDuration = 0.008000000012000012ms
*.n11.app[7].messageLength = 100B - 58B # 58B = 4B (VLAN Tag) + 8B (UDP) + 20B (IP) + 14B (ETH MAC) + 4B (ETH FCS) + 8B (ETH PHY)
*.n11.app[7].startTime = 0.666666ms + exponential(10ms)
*.n11.app[7].sleepDuration = 0.666666ms + exponential(10ms)
*.n11.app[7].sendInterval = 9999s # burst consists of a single packet
*.n11.app[7].io.interfaceTableModule = "^.^.interfaceTable"



**.bridging.streamIdentifier.identifier.mapping = [{stream: "stream_0", packetFilter: expr(udp.destPort == 5000)},
                                                   {stream: "stream_1", packetFilter: expr(udp.destPort == 5001)},
                                                   {stream: "stream_2", packetFilter: expr(udp.destPort == 5002)},
                                                   {stream: "stream_3", packetFilter: expr(udp.destPort == 5003)},
                                                   {stream: "stream_4", packetFilter: expr(udp.destPort == 5004)},
                                                   {stream: "stream_5", packetFilter: expr(udp.destPort == 5005)},
                                                   {stream: "emergency_stream_0", packetFilter: expr(udp.destPort == 10000)},
                                                   {stream: "emergency_stream_1", packetFilter: expr(udp.destPort == 10001)},
                                                   {stream: "emergency_stream_2", packetFilter: expr(udp.destPort == 10002)},
                                                   {stream: "emergency_stream_3", packetFilter: expr(udp.destPort == 10003)},
                                                   {stream: "emergency_stream_4", packetFilter: expr(udp.destPort == 10004)},
                                                   {stream: "emergency_stream_5", packetFilter: expr(udp.destPort == 10005)},
                                                   {stream: "emergency_stream_6", packetFilter: expr(udp.destPort == 10006)},
                                                   {stream: "emergency_stream_7", packetFilter: expr(udp.destPort == 10007)},
                                                   {stream: "emergency_stream_8", packetFilter: expr(udp.destPort == 10008)}]

**.bridging.streamCoder.encoder.mapping = [{stream: "stream_0", pcp: 5},
                                           {stream: "stream_1", pcp: 0},
                                           {stream: "stream_2", pcp: 2},
                                           {stream: "stream_3", pcp: 2},
                                           {stream: "stream_4", pcp: 5},
                                           {stream: "stream_5", pcp: 6},
                                           {stream: "emergency_stream_0", pcp: 7},
                                           {stream: "emergency_stream_1", pcp: 7},
                                           {stream: "emergency_stream_2", pcp: 7},
                                           {stream: "emergency_stream_3", pcp: 7},
                                           {stream: "emergency_stream_4", pcp: 7},
                                           {stream: "emergency_stream_5", pcp: 7},
                                           {stream: "emergency_stream_6", pcp: 7},
                                           {stream: "emergency_stream_7", pcp: 7},
                                           {stream: "emergency_stream_8", pcp: 7}]


*.n0.eth[0].macLayer.queue.transmissionGate[7].offset = 0ns
*.n0.eth[0].macLayer.queue.transmissionGate[7].initiallyOpen = true
# ET port, open all the time
*.n0.eth[0].macLayer.queue.transmissionGate[7].durations = []

*.n0.eth[1].macLayer.queue.transmissionGate[7].offset = 0ns
*.n0.eth[1].macLayer.queue.transmissionGate[7].initiallyOpen = true
# ET port, open all the time
*.n0.eth[1].macLayer.queue.transmissionGate[7].durations = []

*.n0.eth[1].macLayer.queue.transmissionGate[2].offset = 562559ns
*.n0.eth[1].macLayer.queue.transmissionGate[2].initiallyOpen = true
# (3-0), (close), (3-1), (close)
*.n0.eth[1].macLayer.queue.transmissionGate[2].durations = [17521ns, 282479ns, 17521ns, 282479ns]

*.n0.eth[2].macLayer.queue.transmissionGate[7].offset = 0ns
*.n0.eth[2].macLayer.queue.transmissionGate[7].initiallyOpen = true
# ET port, open all the time
*.n0.eth[2].macLayer.queue.transmissionGate[7].durations = []

*.n0.eth[2].macLayer.queue.transmissionGate[0].offset = 539959ns
*.n0.eth[2].macLayer.queue.transmissionGate[0].initiallyOpen = true
# (1-0), (close), (1-1), (close), (1-2), (close)
*.n0.eth[2].macLayer.queue.transmissionGate[0].durations = [17521ns, 182479ns, 17521ns, 182479ns, 17521ns, 182479ns]

*.n0.eth[2].macLayer.queue.transmissionGate[5].offset = 569200ns
*.n0.eth[2].macLayer.queue.transmissionGate[5].initiallyOpen = true
# (4-0), (close), (4-1), (close), (4-2), (close)
*.n0.eth[2].macLayer.queue.transmissionGate[5].durations = [17521ns, 182479ns, 17521ns, 182479ns, 17521ns, 182479ns]

*.n1.eth[0].macLayer.queue.transmissionGate[7].offset = 0ns
*.n1.eth[0].macLayer.queue.transmissionGate[7].initiallyOpen = true
# ET port, open all the time
*.n1.eth[0].macLayer.queue.transmissionGate[7].durations = []

*.n1.eth[0].macLayer.queue.transmissionGate[0].offset = 550159ns
*.n1.eth[0].macLayer.queue.transmissionGate[0].initiallyOpen = true
# (1-0), (close), (1-1), (close), (1-2), (close)
*.n1.eth[0].macLayer.queue.transmissionGate[0].durations = [8000ns, 192000ns, 8000ns, 192000ns, 8000ns, 192000ns]

*.n1.eth[0].macLayer.queue.transmissionGate[5].offset = 579400ns
*.n1.eth[0].macLayer.queue.transmissionGate[5].initiallyOpen = true
# (4-0), (close), (4-1), (close), (4-2), (close)
*.n1.eth[0].macLayer.queue.transmissionGate[5].durations = [8000ns, 192000ns, 8000ns, 192000ns, 8000ns, 192000ns]

*.n1.eth[1].macLayer.queue.transmissionGate[7].offset = 0ns
*.n1.eth[1].macLayer.queue.transmissionGate[7].initiallyOpen = true
# ET port, open all the time
*.n1.eth[1].macLayer.queue.transmissionGate[7].durations = []

*.n1.eth[2].macLayer.queue.transmissionGate[7].offset = 0ns
*.n1.eth[2].macLayer.queue.transmissionGate[7].initiallyOpen = true
# ET port, open all the time
*.n1.eth[2].macLayer.queue.transmissionGate[7].durations = []

*.n1.eth[3].macLayer.queue.transmissionGate[7].offset = 0ns
*.n1.eth[3].macLayer.queue.transmissionGate[7].initiallyOpen = true
# ET port, open all the time
*.n1.eth[3].macLayer.queue.transmissionGate[7].durations = []

*.n1.eth[3].macLayer.queue.transmissionGate[2].offset = 560359ns
*.n1.eth[3].macLayer.queue.transmissionGate[2].initiallyOpen = true
# (2-0), (close), (3-0), (close), (2-1), (close), (2-2), (close), (2-3), (close), (3-1), (close), (2-4), (close), (2-5), (close)
*.n1.eth[3].macLayer.queue.transmissionGate[2].durations = [8000ns, 9521ns, 8000ns, 74479ns, 8000ns, 92000ns, 8000ns, 92000ns, 8000ns, 9521ns, 8000ns, 74479ns, 8000ns, 92000ns, 8000ns, 92000ns]

*.n2.eth[0].macLayer.queue.transmissionGate[7].offset = 0ns
*.n2.eth[0].macLayer.queue.transmissionGate[7].initiallyOpen = true
# ET port, open all the time
*.n2.eth[0].macLayer.queue.transmissionGate[7].durations = []

*.n2.eth[0].macLayer.queue.transmissionGate[0].offset = 560359ns
*.n2.eth[0].macLayer.queue.transmissionGate[0].initiallyOpen = true
# (1-0), (close), (1-1), (close), (1-2), (close)
*.n2.eth[0].macLayer.queue.transmissionGate[0].durations = [8000ns, 192000ns, 8000ns, 192000ns, 8000ns, 192000ns]

*.n2.eth[0].macLayer.queue.transmissionGate[5].offset = 589600ns
*.n2.eth[0].macLayer.queue.transmissionGate[5].initiallyOpen = true
# (4-0), (close), (4-1), (close), (4-2), (close)
*.n2.eth[0].macLayer.queue.transmissionGate[5].durations = [8000ns, 192000ns, 8000ns, 192000ns, 8000ns, 192000ns]

*.n2.eth[1].macLayer.queue.transmissionGate[7].offset = 0ns
*.n2.eth[1].macLayer.queue.transmissionGate[7].initiallyOpen = true
# ET port, open all the time
*.n2.eth[1].macLayer.queue.transmissionGate[7].durations = []

*.n2.eth[1].macLayer.queue.transmissionGate[5].offset = 580640ns
*.n2.eth[1].macLayer.queue.transmissionGate[5].initiallyOpen = true
# (0-0), (close), (0-1), (close), (0-2), (close), (0-3), (close), (0-4), (close), (0-5), (close)
*.n2.eth[1].macLayer.queue.transmissionGate[5].durations = [8000ns, 83040ns, 8000ns, 100960ns, 8000ns, 83040ns, 8000ns, 100960ns, 8000ns, 83040ns, 8000ns, 100960ns]

*.n2.eth[2].macLayer.queue.transmissionGate[7].offset = 0ns
*.n2.eth[2].macLayer.queue.transmissionGate[7].initiallyOpen = true
# ET port, open all the time
*.n2.eth[2].macLayer.queue.transmissionGate[7].durations = []
